*Heading
** Job name: UT_E2500_VM Model name: Model-1
** Generated by: Abaqus/CAE 2021
*Preprint, echo=NO, model=NO, history=NO, contact=NO
**
** PARTS
**
*Part, name=Part-1
*Node
      1,           0.,  0.100000001
      2,           0., 0.0979999974
      3,           0., 0.0960000008
      4,           0., 0.0939999968
      5,           0., 0.0920000002
      6,           0., 0.0900000036
      7,           0., 0.0879999995
      8,           0., 0.0860000029
      9,           0., 0.0839999989
     10,           0., 0.0820000023
     11,           0., 0.0799999982
     12,           0., 0.0780000016
     13,           0., 0.0759999976
     14,           0.,  0.074000001
     15,           0., 0.0719999969
     16,           0., 0.0700000003
     17,           0., 0.0680000037
     18,           0., 0.0659999996
     19,           0.,  0.064000003
     20,           0.,  0.061999999
** ... 2581 like lines cut
*Element, type=CPE4
   1,    1,    2,   53,   52
   2,    2,    3,   54,   53
   3,    3,    4,   55,   54
   4,    4,    5,   56,   55
   5,    5,    6,   57,   56
   6,    6,    7,   58,   57
   7,    7,    8,   59,   58
   8,    8,    9,   60,   59
   9,    9,   10,   61,   60
  10,   10,   11,   62,   61
  11,   11,   12,   63,   62
  12,   12,   13,   64,   63
  13,   13,   14,   65,   64
  14,   14,   15,   66,   65
  15,   15,   16,   67,   66
  16,   16,   17,   68,   67
  17,   17,   18,   69,   68
  18,   18,   19,   70,   69
  19,   19,   20,   71,   70
  20,   20,   21,   72,   71
** ... 2480 like lines cut
*Nset, nset=Set-1, generate
    1,  2601,     1
*Elset, elset=Set-1, generate
    1,  2500,     1
** Section: Section-1
*Solid Section, elset=Set-1, material=Material-1
,
*End Part
**  
**
** ASSEMBLY
**
*Assembly, name=Assembly
**  
*Instance, name=Part-1-1, part=Part-1
*End Instance
**  
*Nset, nset=FIXY, instance=Part-1-1, generate
 1326,  2601,    51
*Elset, elset=FIXY, instance=Part-1-1, generate
 1300,  2500,    50
*Nset, nset=LOAD, instance=Part-1-1, generate
    1,  2551,    51
*Elset, elset=LOAD, instance=Part-1-1, generate
    1,  2451,    50
*Nset, nset=Set-3, instance=Part-1-1, generate
 2551,  2601,    1
*End Assembly
*Amplitude, name=Amp-1, definition=SMOOTH STEP
             0.,              0.,              1.,              1.
** 
** MATERIALS
** 
*Material, name=Material-1
*Density
2400.,
*Depvar
      3,
*User Material, constants=6, unsymm
 2e+10,    0.2,    10., 0.0001,  2e+06,    70.
** 
** BOUNDARY CONDITIONS
** 
** Name: BC-2 Type: Displacement/Rotation
*Boundary
FIXY, 2, 2
** Name: BC-3 Type: Displacement/Rotation
*Boundary
Set-3, 1, 1
** ----------------------------------------------------------------
** 
** STEP: Step-1
** 
*Step, name=Step-1, nlgeom=YES, inc=10000
*Static
0.001, 0.2, 1e-15, 0.001
** 
** BOUNDARY CONDITIONS
** 
** Name: BC-1 Type: Displacement/Rotation
*Boundary, amplitude=Amp-1
LOAD, 2, 2, 0.001
** 
** OUTPUT REQUESTS
** 
*Restart, write, frequency=0
** 
** FIELD OUTPUT: F-Output-1
** 
*Output, field
*Node Output
RF, U
*Element Output, directions=YES
LE, S, SDV
** 
** HISTORY OUTPUT: H-Output-3
** 
*Output, history, frequency=1
*Node Output, nset=FIXY
RF2, 
** 
** HISTORY OUTPUT: H-Output-2
** 
*Node Output, nset=LOAD
U2, 
** 
** HISTORY OUTPUT: H-Output-1
** 
*Output, history, variable=PRESELECT
*End Step
